ckt5_VLN_elem.Txt

NODE-GROUND VOLTAGES BY CIRCUIT ELEMENT

Power Delivery Elements

Bus                            (node ref)  Phase    Magnitude, kV (pu)    Angle

ELEMENT = "Vsource.SOURCE"
SOURCEBUS                       (  1)    1           69.715 (    1.05) /_    0.0
SOURCEBUS                       (  2)    2           69.715 (    1.05) /_ -120.0
SOURCEBUS                       (  3)    3           69.715 (    1.05) /_  120.0
------------
SOURCEBUS                       (  0)    0                0 (       0) /_    0.0
SOURCEBUS                       (  0)    0                0 (       0) /_    0.0
SOURCEBUS                       (  0)    0                0 (       0) /_    0.0



ELEMENT = "Line.MDV201_CONNECTOR"
_MDV_SUB_1_LSB                  (  4)    1           7.3186 (   1.017) /_  -33.4
_MDV_SUB_1_LSB                  (  5)    2           7.3052 (   1.015) /_ -153.7
_MDV_SUB_1_LSB                  (  6)    3            7.319 (   1.017) /_   86.7
------------
MDV201                          (  7)    1           7.3186 (   1.017) /_  -33.4
MDV201                          (  8)    2           7.3052 (   1.015) /_ -153.7
MDV201                          (  9)    3            7.319 (   1.017) /_   86.7


ELEMENT = "Line.MDV201_HN_1_275_A94744"
94743                           ( 10)    1           7.1121 (  0.9879) /_  -34.2
------------
94744                           ( 11)    1           7.1121 (  0.9878) /_  -34.2

ELEMENT = "Line.MDV201_HN_2_466_C62235"
62244                           ( 12)    3           7.1707 (   0.996) /_   85.3
------------
62235                           ( 13)    3           7.1699 (  0.9959) /_   85.3

ELEMENT = "Line.MDV201_DA_8_780_A1144234"
1144235                         ( 14)    1           7.1499 (  0.9931) /_  -34.7
------------
1144234                         ( 15)    1           7.1495 (   0.993) /_  -34.7

ELEMENT = "Line.MDV201_1160486ELB-1_SW"
39754                           ( 16)    2           6.9897 (  0.9708) /_ -155.3
------------
MDV201_1160486ELB_INT           ( 17)    2           6.9896 (  0.9708) /_ -155.3

ELEMENT = "Line.MDV201_1160486ELB"
MDV201_1160486ELB_INT           ( 17)    2           6.9896 (  0.9708) /_ -155.3
------------
1160486                         ( 18)    2           6.9896 (  0.9708) /_ -155.3

ELEMENT = "Line.MDV201_HN_2P009_B1160473"
1160476                         ( 19)    2           6.9944 (  0.9715) /_ -155.3
------------
1160473                         ( 20)    2           6.9934 (  0.9714) /_ -155.3

ELEMENT = "Line.MDV201_HN_2_088_ABC8164"
8163                            ( 21)    1           7.2002 (       1) /_  -34.3
8163                            ( 22)    2           7.1922 (   0.999) /_ -154.5
8163                            ( 23)    3           7.1946 (  0.9993) /_   85.4
------------
8164                            ( 24)    1           7.1978 (  0.9998) /_  -34.3
8164                            ( 25)    2           7.1903 (  0.9987) /_ -154.5
8164                            ( 26)    3           7.1887 (  0.9985) /_   85.4

ELEMENT = "Line.MDV201_HN_2_319_B39610"
103730                          ( 27)    2           7.0866 (  0.9843) /_ -155.2
------------
39610                           ( 28)    2           7.0866 (  0.9843) /_ -155.2

ELEMENT = "Line.MDV201_HN_2_417_A842"
835                             ( 29)    1           7.2494 (   1.007) /_  -33.8
------------
842                             ( 30)    1           7.2487 (   1.007) /_  -33.8



ELEMENT = "Line.MDV201_HN_2_941_B39760"
39775                           ( 31)    2           6.9967 (  0.9718) /_ -155.3
------------
39760                           ( 32)    2           6.9963 (  0.9718) /_ -155.3

ELEMENT = "Line.MDV201_1160480ELB-1_SW"
15004                           ( 33)    2           6.9923 (  0.9712) /_ -155.3
------------
MDV201_1160480ELB_INT           ( 34)    2           6.9922 (  0.9712) /_ -155.3

ELEMENT = "Line.MDV201_1160480ELB"
MDV201_1160480ELB_INT           ( 34)    2           6.9922 (  0.9712) /_ -155.3
------------
1160480                         ( 35)    2           6.9922 (  0.9712) /_ -155.3

ELEMENT = "Line.C_1P034_SW"
1160492                         ( 36)    1           7.1299 (  0.9903) /_  -34.2
------------
MDV201_8088ELB_INT              ( 37)    1           7.1299 (  0.9903) /_  -34.2

ELEMENT = "Line.MDV201_8088ELB"
MDV201_8088ELB_INT              ( 37)    1           7.1299 (  0.9903) /_  -34.2
------------
8088                            ( 38)    1           7.1299 (  0.9903) /_  -34.2

ELEMENT = "Line.MDV201_HN_2_499_ABC834"
829                             ( 39)    1           7.1768 (  0.9968) /_  -34.2
829                             ( 40)    2           7.1607 (  0.9946) /_ -154.9
829                             ( 41)    3           7.2425 (   1.006) /_   85.6
------------
834                             ( 42)    1           7.1691 (  0.9958) /_  -34.2
834                             ( 43)    2           7.1512 (  0.9933) /_ -154.9
834                             ( 44)    3           7.2374 (   1.005) /_   85.6

ELEMENT = "Line.MDV201_1160478ELB-1_SW"
15005                           ( 45)    2           6.9909 (   0.971) /_ -155.3
------------
MDV201_1160478ELB_INT           ( 46)    2           6.9909 (   0.971) /_ -155.3

ELEMENT = "Line.MDV201_1160478ELB"
MDV201_1160478ELB_INT           ( 46)    2           6.9909 (   0.971) /_ -155.3
------------
1160478                         ( 47)    2           6.9909 (   0.971) /_ -155.3

ELEMENT = "Line.MDV201_HN_2_217_ABC8160"
44582                           ( 48)    1            7.204 (   1.001) /_  -34.3
44582                           ( 49)    2           7.1958 (  0.9995) /_ -154.5
44582                           ( 50)    3           7.2055 (   1.001) /_   85.5
------------
8160                            ( 51)    1           7.2034 (   1.001) /_  -34.3
8160                            ( 52)    2           7.1951 (  0.9994) /_ -154.5
8160                            ( 53)    3           7.2035 (   1.001) /_   85.5

ELEMENT = "Line.MDV201_HN_2_942_C89791"
89783                           ( 54)    3           7.1534 (  0.9936) /_   85.3
------------
89791                           ( 55)    3           7.1523 (  0.9934) /_   85.3

ELEMENT = "Line.MDV201_99422FUSE"
6584                            ( 56)    1           7.1526 (  0.9935) /_  -34.6
------------
99422                           ( 57)    1           7.1526 (  0.9935) /_  -34.6

ELEMENT = "Line.MDV201_HN_2_140_ABC8124"
8113                            ( 58)    1           7.1936 (  0.9992) /_  -34.2
8113                            ( 59)    2           7.1871 (  0.9983) /_ -154.8
8113                            ( 60)    3           7.2509 (   1.007) /_   85.6
------------
8124                            ( 61)    1           7.1925 (   0.999) /_  -34.2
8124                            ( 62)    2           7.1874 (  0.9983) /_ -154.8
8124                            ( 63)    3           7.2502 (   1.007) /_   85.6

ELEMENT = "Line.MDV201_HN_2_818_ABC63707"
14880                           ( 64)    1           7.2014 (       1) /_  -34.0
14880                           ( 65)    2            7.168 (  0.9956) /_ -154.9
14880                           ( 66)    3           7.2604 (   1.008) /_   85.6
------------
63707                           ( 67)    1           7.2006 (       1) /_  -34.0
63707                           ( 68)    2           7.1646 (  0.9951) /_ -154.9
63707                           ( 69)    3           7.2615 (   1.009) /_   85.6

ELEMENT = "Line.MDV201_DA_8_731_C74450"
74449                           ( 70)    3           7.1032 (  0.9866) /_   85.1
------------
74450                           ( 71)    3            7.103 (  0.9866) /_   85.1

ELEMENT = "Line.MDV201_100494FUSE"
14989                           ( 72)    2           7.0518 (  0.9795) /_ -155.2
------------
100494                          ( 73)    2           7.0518 (  0.9795) /_ -155.2

ELEMENT = "Line.MDV201_107110FUSE"
63683                           ( 74)    1           7.2094 (   1.001) /_  -34.1
63683                           ( 75)    3           7.2584 (   1.008) /_   85.7
------------
107110                          ( 76)    1           7.2094 (   1.001) /_  -34.1
107110                          ( 77)    3           7.2583 (   1.008) /_   85.7

ELEMENT = "Line.MDV201_HN_2_477_C8121"
1144242                         ( 78)    3           7.2498 (   1.007) /_   85.6
------------
8121                            ( 79)    3           7.2492 (   1.007) /_   85.6

ELEMENT = "Line.MDV201_HN_2_876_C63671"
63668                           ( 80)    3           7.2244 (   1.003) /_   85.5
------------
63671                           ( 81)    3           7.2237 (   1.003) /_   85.5

ELEMENT = "Line.MDV201_HN_2_671_C89781"
89784                           ( 82)    3           7.1584 (  0.9943) /_   85.3
------------
89781                           ( 83)    3           7.1565 (   0.994) /_   85.3

ELEMENT = "Line.MDV201_DA_8_930_A39751"
39734                           ( 84)    1            7.126 (  0.9898) /_  -34.7
------------
39751                           ( 85)    1           7.1255 (  0.9897) /_  -34.7

ELEMENT = "Line.MDV201_HN_2_394_ABC63658"
63657                           ( 86)    1           7.2295 (   1.004) /_  -34.0
63657                           ( 87)    2           7.2173 (   1.002) /_ -154.5
63657                           ( 88)    3            7.266 (   1.009) /_   85.8
------------
63658                           ( 89)    1           7.2263 (   1.004) /_  -34.0
63658                           ( 90)    2           7.2136 (   1.002) /_ -154.5
63658                           ( 91)    3           7.2657 (   1.009) /_   85.8

ELEMENT = "Line.MDV201_DA_8_687_B74448"
74445                           ( 92)    2           7.1582 (  0.9943) /_ -154.6
------------
74448                           ( 93)    2           7.1568 (  0.9941) /_ -154.6

ELEMENT = "Line.MDV201_1012643FUSE"
1012641                         ( 94)    3           7.2021 (       1) /_   85.5
------------
1012643                         ( 95)    3           7.2021 (       1) /_   85.5

ELEMENT = "Line.MDV201_HN_1_238_A39569"
39570                           ( 96)    1           7.1128 (   0.988) /_  -34.2
------------
39569                           ( 97)    1           7.1126 (  0.9879) /_  -34.2

ELEMENT = "Line.MDV201_14869FUSE"
14858                           ( 98)    1           7.2105 (   1.002) /_  -34.2
------------
14869                           ( 99)    1           7.2105 (   1.002) /_  -34.2

ELEMENT = "Line.MDV201_HN_1_156_C89790"
89796                           (100)    3           7.2049 (   1.001) /_   85.4
------------
89790                           (101)    3           7.2048 (   1.001) /_   85.4

ELEMENT = "Line.MDV201_HN_2_318_C28272"
28271                           (102)    3           7.2673 (   1.009) /_   85.5
------------
28272                           (103)    3           7.2671 (   1.009) /_   85.5

ELEMENT = "Line.MDV201_C_1_140_ABC69477"
69478                           (104)    1           7.1273 (    0.99) /_  -34.2
69478                           (105)    2           7.0992 (  0.9861) /_ -155.2
69478                           (106)    3           7.2311 (   1.004) /_   85.5
------------
69477                           (107)    1           7.1273 (    0.99) /_  -34.2
69477                           (108)    2           7.0992 (  0.9861) /_ -155.2
69477                           (109)    3           7.2311 (   1.004) /_   85.5

ELEMENT = "Line.MDV201_HN_2_948_C8176"
8175                            (110)    3           7.1506 (  0.9932) /_   85.3
------------
8176                            (111)    3           7.1505 (  0.9932) /_   85.2

ELEMENT = "Line.MDV201_1144230FUSE"
8184                            (112)    1           7.1967 (  0.9996) /_  -34.0
------------
1144230                         (113)    1           7.1967 (  0.9996) /_  -34.0

ELEMENT = "Line.MDV201_HN_2_105_ABC39582"
39595                           (114)    1           7.1202 (   0.989) /_  -34.2
39595                           (115)    2           7.0817 (  0.9836) /_ -155.2
39595                           (116)    3           7.2269 (   1.004) /_   85.5
------------
39582                           (117)    1           7.1186 (  0.9887) /_  -34.2
39582                           (118)    2           7.0767 (  0.9829) /_ -155.2
39582                           (119)    3           7.2259 (   1.004) /_   85.5

ELEMENT = "Line.MDV201_DA_8_691_B46386"
46385                           (120)    2           7.1525 (  0.9935) /_ -154.7
------------
46386                           (121)    2           7.1517 (  0.9933) /_ -154.7

ELEMENT = "Line.MDV201_HN_2_457_C62244"
106884                          (122)    3           7.1713 (  0.9961) /_   85.3
------------
62244                           ( 12)    3           7.1707 (   0.996) /_   85.3

ELEMENT = "Line.C_1P038_SW"
1160493                         (123)    1           7.1327 (  0.9907) /_  -34.2
------------
MDV201_8075ELB_INT              (124)    1           7.1327 (  0.9907) /_  -34.2

ELEMENT = "Line.MDV201_8075ELB"
MDV201_8075ELB_INT              (124)    1           7.1327 (  0.9907) /_  -34.2
------------
8075                            (125)    1           7.1327 (  0.9907) /_  -34.2

ELEMENT = "Line.C_1P032_SW"
69460                           (126)    1           7.1294 (  0.9903) /_  -34.2
------------
MDV201_107997ELB_INT            (127)    1           7.1294 (  0.9903) /_  -34.2

ELEMENT = "Line.MDV201_107997ELB"
MDV201_107997ELB_INT            (127)    1           7.1294 (  0.9903) /_  -34.2
------------
107997                          (128)    1           7.1294 (  0.9903) /_  -34.2

ELEMENT = "Line.MDV201_HN_2_949_C8180"
8176                            (111)    3           7.1505 (  0.9932) /_   85.2
------------
8180                            (129)    3           7.1504 (  0.9932) /_   85.2

ELEMENT = "Line.MDV201_C_1P024_A8100"
1160461                         (130)    1           7.1417 (   0.992) /_  -34.2
------------
8100                            (131)    1           7.1402 (  0.9918) /_  -34.2

ELEMENT = "Line.MDV201_HN_2_166_C33824"
39776                           (132)    3           7.1821 (  0.9976) /_   85.4
------------
33824                           (133)    3           7.1815 (  0.9975) /_   85.4

ELEMENT = "Line.MDV201_HN_2_827_A14873"
1140227                         (134)    1           7.2025 (       1) /_  -34.1
------------
14873                           (135)    1           7.2023 (       1) /_  -34.1

ELEMENT = "Line.HN_2P017_SW"
1160488                         (136)    2           7.1852 (   0.998) /_ -154.5
------------
MDV201_62249ELB_INT             (137)    2           7.1852 (   0.998) /_ -154.5

ELEMENT = "Line.MDV201_62249ELB"
MDV201_62249ELB_INT             (137)    2           7.1852 (   0.998) /_ -154.5
------------
62249                           (138)    2           7.1852 (   0.998) /_ -154.5

ELEMENT = "Line.MDV201_HN_2_397_B63634"
107106                          (139)    2           7.1976 (  0.9997) /_ -154.6
------------
63634                           (140)    2           7.1966 (  0.9996) /_ -154.6

ELEMENT = "Line.MDV201_C_1P037_A1160467"
1160494                         (141)    1           7.1327 (  0.9907) /_  -34.2
------------
1160467                         (142)    1           7.1322 (  0.9906) /_  -34.2

ELEMENT = "Line.MDV201_HN_2_280_A8185"
1144230                         (113)    1           7.1967 (  0.9996) /_  -34.0
------------
8185                            (143)    1           7.1966 (  0.9996) /_  -34.0

ELEMENT = "Line.MDV201_HN_2_794_ABC791"
796                             (144)    1           7.3125 (   1.016) /_  -33.4
796                             (145)    2           7.2995 (   1.014) /_ -153.7
796                             (146)    3           7.3149 (   1.016) /_   86.6
------------
791                             (147)    1           7.3058 (   1.015) /_  -33.5
791                             (148)    2           7.2934 (   1.013) /_ -153.8
791                             (149)    3           7.3109 (   1.015) /_   86.6

ELEMENT = "Line.MDV201_HN_2_677_C62303"
62306                           (150)    3           7.1537 (  0.9936) /_   85.3
------------
62303                           (151)    3           7.1534 (  0.9936) /_   85.3

ELEMENT = "Line.MDV201_100478FUSE"
14839                           (152)    3           7.2642 (   1.009) /_   85.5
------------
100478                          (153)    3           7.2642 (   1.009) /_   85.5

ELEMENT = "Line.MDV201_HN_2_115_ABC58446"
58441                           (154)    1           7.1191 (  0.9888) /_  -34.2
58441                           (155)    2           7.0712 (  0.9822) /_ -155.2
58441                           (156)    3           7.2073 (   1.001) /_   85.4
------------
58446                           (157)    1           7.1191 (  0.9888) /_  -34.2
58446                           (158)    2           7.0711 (  0.9822) /_ -155.2
58446                           (159)    3           7.2064 (   1.001) /_   85.4

ELEMENT = "Line.MDV201_HN_2_895_B52515"
112112                          (160)    2           7.0735 (  0.9825) /_ -155.2
------------
52515                           (161)    2           7.0731 (  0.9824) /_ -155.2

ELEMENT = "Line.MDV201_98795FUSE"
846                             (162)    1           7.1895 (  0.9986) /_  -34.2
846                             (163)    2           7.1882 (  0.9984) /_ -154.8
846                             (164)    3           7.2498 (   1.007) /_   85.6
------------
98795                           (165)    1           7.1895 (  0.9986) /_  -34.2
98795                           (166)    2           7.1882 (  0.9984) /_ -154.8
98795                           (167)    3           7.2498 (   1.007) /_   85.6

ELEMENT = "Line.MDV201_HN_2_246_B39602"
39623                           (168)    2           7.1196 (  0.9889) /_ -155.0
------------
39602                           (169)    2           7.1192 (  0.9888) /_ -155.1

ELEMENT = "Line.MDV201_DA_8_149_ABC56778"
56777                           (170)    1           7.1453 (  0.9925) /_  -34.7
56777                           (171)    2            7.179 (  0.9971) /_ -154.6
56777                           (172)    3           7.1521 (  0.9934) /_   85.3
------------
56778                           (173)    1           7.1456 (  0.9925) /_  -34.6
56778                           (174)    2           7.1765 (  0.9968) /_ -154.6
56778                           (175)    3           7.1506 (  0.9932) /_   85.3

ELEMENT = "Line.MDV201_HN_2_083_ABC62239"
44586                           (176)    1           7.1917 (  0.9989) /_  -34.4
44586                           (177)    2           7.1862 (  0.9981) /_ -154.5
44586                           (178)    3           7.1741 (  0.9965) /_   85.3
------------
62239                           (179)    1           7.1903 (  0.9987) /_  -34.4
62239                           (180)    2           7.1859 (  0.9981) /_ -154.5
62239                           (181)    3           7.1732 (  0.9963) /_   85.3

ELEMENT = "Line.MDV201_DA_8_145_ABC46393"
46394                           (182)    1           7.1475 (  0.9928) /_  -34.6
46394                           (183)    2           7.1657 (  0.9953) /_ -154.6
46394                           (184)    3           7.1434 (  0.9922) /_   85.2
------------
46393                           (185)    1           7.1475 (  0.9928) /_  -34.6
46393                           (186)    2           7.1657 (  0.9953) /_ -154.6
46393                           (187)    3           7.1434 (  0.9922) /_   85.2

ELEMENT = "Line.MDV201_HN_2_729_B28246"
1144254                         (188)    2           7.2045 (   1.001) /_ -154.5
------------
28246                           (189)    2           7.2045 (   1.001) /_ -154.5

ELEMENT = "Line.MDV201_HN_2_954_B39771"
14996                           (190)    2           6.9987 (  0.9721) /_ -155.3
------------
39771                           (191)    2           6.9985 (  0.9721) /_ -155.3

ELEMENT = "Line.MDV201_108776FUSE"
74432                           (192)    1           7.1463 (  0.9926) /_  -34.6
------------
108776                          (193)    1           7.1463 (  0.9926) /_  -34.6

ELEMENT = "Line.HN_2P028_SW"
1160489                         (194)    1           7.2528 (   1.007) /_  -33.8
------------
MDV201_795ELB_INT               (195)    1           7.2528 (   1.007) /_  -33.8

ELEMENT = "Line.MDV201_795ELB"
MDV201_795ELB_INT               (195)    1           7.2528 (   1.007) /_  -33.8
------------
795                             (196)    1           7.2528 (   1.007) /_  -33.8

ELEMENT = "Line.MDV201_1140227FUSE"
14879                           (197)    1           7.2025 (       1) /_  -34.1
------------
1140227                         (134)    1           7.2025 (       1) /_  -34.1

ELEMENT = "Line.MDV201_HN_2_488_C8103"
8099                            (198)    3           7.2511 (   1.007) /_   85.6
------------
8103                            (199)    3           7.2507 (   1.007) /_   85.6

ELEMENT = "Line.MDV201_DA_8_917_A56768"
1000983                         (200)    1           7.1451 (  0.9924) /_  -34.7
------------
56768                           (201)    1           7.1437 (  0.9922) /_  -34.7

ELEMENT = "Line.MDV201_HN_2_029_ABC62262"
62265                           (202)    1           7.1785 (  0.9971) /_  -34.5
62265                           (203)    2           7.1843 (  0.9979) /_ -154.5
62265                           (204)    3           7.1681 (  0.9956) /_   85.3
------------
62262                           (205)    1           7.1754 (  0.9966) /_  -34.5
62262                           (206)    2           7.1843 (  0.9979) /_ -154.5
62262                           (207)    3           7.1669 (  0.9955) /_   85.3

ELEMENT = "Line.MDV201_HN_2_955_B39752"
39771                           (191)    2           6.9985 (  0.9721) /_ -155.3
------------
39752                           (208)    2           6.9983 (   0.972) /_ -155.3

ELEMENT = "Line.MDV201_DA_8_215_B1017348"
1017350                         (209)    2           6.9971 (  0.9719) /_ -155.3
------------
1017348                         (210)    2           6.9963 (  0.9718) /_ -155.3

ELEMENT = "Line.MDV201_DA_8_678_A56764"
56760                           (211)    1            7.148 (  0.9928) /_  -34.6
------------
56764                           (212)    1           7.1475 (  0.9928) /_  -34.6

ELEMENT = "Line.MDV201_HN_2_834_B39617"
39620                           (213)    2           7.1262 (  0.9898) /_ -155.0
------------
39617                           (214)    2           7.1258 (  0.9898) /_ -155.0

ELEMENT = "Line.MDV201_HN_2_906_A39580"
39589                           (215)    1           7.1161 (  0.9884) /_  -34.2
------------
39580                           (216)    1            7.116 (  0.9884) /_  -34.2

ELEMENT = "Line.MDV201_DA_8_734_C74440"
74446                           (217)    3           7.1025 (  0.9865) /_   85.1
------------
74440                           (218)    3           7.1021 (  0.9865) /_   85.1

ELEMENT = "Line.MDV201_DA_8_157_ABC58429"
58430                           (219)    1           7.1492 (   0.993) /_  -34.6
58430                           (220)    2           7.1649 (  0.9952) /_ -154.6
58430                           (221)    3           7.1393 (  0.9916) /_   85.2
------------
58429                           (222)    1           7.1499 (  0.9931) /_  -34.6
58429                           (223)    2           7.1646 (  0.9951) /_ -154.6
58429                           (224)    3           7.1377 (  0.9914) /_   85.1

ELEMENT = "Line.MDV201_HN_2_605_A21655"
28213                           (225)    1            7.186 (  0.9981) /_  -34.2
------------
21655                           (226)    1           7.1846 (  0.9979) /_  -34.2

ELEMENT = "Line.MDV201_HN_2_636_AC28249"
63666                           (227)    1           7.2071 (   1.001) /_  -34.1
63666                           (228)    3           7.2568 (   1.008) /_   85.7
------------
28249                           (229)    1           7.2052 (   1.001) /_  -34.1
28249                           (230)    3           7.2564 (   1.008) /_   85.7

ELEMENT = "Line.MDV201_HN_2_705_ABC52524"
105409                          (231)    1           7.2045 (   1.001) /_  -34.1
105409                          (232)    2           7.1786 (  0.9971) /_ -154.8
105409                          (233)    3           7.2572 (   1.008) /_   85.6
------------
52524                           (234)    1           7.2037 (   1.001) /_  -34.1
52524                           (235)    2           7.1762 (  0.9968) /_ -154.8
52524                           (236)    3            7.258 (   1.008) /_   85.6

ELEMENT = "Line.MDV201_DA_8_928_A39733"
74424                           (237)    1           7.1281 (  0.9901) /_  -34.7
------------
39733                           (238)    1           7.1269 (  0.9899) /_  -34.7

ELEMENT = "Line.MDV201_HN_2_383_ABC8113"
8111                            (239)    1           7.1948 (  0.9993) /_  -34.2
8111                            (240)    2           7.1868 (  0.9982) /_ -154.8
8111                            (241)    3           7.2516 (   1.007) /_   85.6
------------
8113                            ( 58)    1           7.1936 (  0.9992) /_  -34.2
8113                            ( 59)    2           7.1871 (  0.9983) /_ -154.8
8113                            ( 60)    3           7.2509 (   1.007) /_   85.6

ELEMENT = "Line.MDV201_HN_2_803_B837"
836                             (242)    2           7.1257 (  0.9897) /_ -155.0
------------
837                             (243)    2           7.1242 (  0.9895) /_ -155.0

ELEMENT = "Line.SW-HN_2_793_SW"
1023346                         (244)    1           7.3131 (   1.016) /_  -33.4
1023346                         (245)    2           7.3001 (   1.014) /_ -153.7
1023346                         (246)    3           7.3155 (   1.016) /_   86.6
------------
MDV201_796USD_INT               (247)    1           7.3126 (   1.016) /_  -33.4
MDV201_796USD_INT               (248)    2           7.2996 (   1.014) /_ -153.7
MDV201_796USD_INT               (249)    3            7.315 (   1.016) /_   86.6

ELEMENT = "Line.MDV201_796USD"
MDV201_796USD_INT               (247)    1           7.3126 (   1.016) /_  -33.4
MDV201_796USD_INT               (248)    2           7.2996 (   1.014) /_ -153.7
MDV201_796USD_INT               (249)    3            7.315 (   1.016) /_   86.6
------------
796                             (144)    1           7.3125 (   1.016) /_  -33.4
796                             (145)    2           7.2995 (   1.014) /_ -153.7
796                             (146)    3           7.3149 (   1.016) /_   86.6

ELEMENT = "Line.MDV201_HN_1_332_C28263"
28262                           (250)    3           7.1916 (  0.9989) /_   85.4
------------
28263                           (251)    3           7.1916 (  0.9989) /_   85.4

ELEMENT = "Line.MDV201_HN_2_890_B52521"
52519                           (252)    2           7.0509 (  0.9793) /_ -155.3
------------
52521                           (253)    2           7.0505 (  0.9793) /_ -155.3

ELEMENT = "Line.MDV201_HN_2_377_ABC28196"
28199                           (254)    1           7.1895 (  0.9986) /_  -34.2
28199                           (255)    2           7.1881 (  0.9984) /_ -154.8
28199                           (256)    3           7.2498 (   1.007) /_   85.6
------------
28196                           (257)    1           7.1895 (  0.9986) /_  -34.2
28196                           (258)    2           7.1881 (  0.9984) /_ -154.8
28196                           (259)    3           7.2498 (   1.007) /_   85.6

ELEMENT = "Line.MDV201_HN_1_331_C28262"
28264                           (260)    3           7.1917 (  0.9989) /_   85.4
------------
28262                           (250)    3           7.1916 (  0.9989) /_   85.4

ELEMENT = "Line.MDV201_HN_2_628_C52531"
28229                           (261)    3           7.2537 (   1.008) /_   85.7
------------
52531                           (262)    3           7.2534 (   1.007) /_   85.7

ELEMENT = "Line.MDV201_HN_2_964_A14870"
14869                           ( 99)    1           7.2105 (   1.002) /_  -34.2
------------
14870                           (263)    1           7.2088 (   1.001) /_  -34.2

ELEMENT = "Line.MDV201_DA_8_200_C46399"
46398                           (264)    3           7.1329 (  0.9907) /_   85.1
------------
46399                           (265)    3           7.1312 (  0.9905) /_   85.1

ELEMENT = "Line.MDV201_106895FUSE"
62264                           (266)    2           7.1845 (  0.9979) /_ -154.5
------------
106895                          (267)    2           7.1845 (  0.9979) /_ -154.5

ELEMENT = "Line.HN_2P054_SW"
1163442                         (268)    3           7.1665 (  0.9954) /_   85.3
------------
MDV201_1163443ELB_INT           (269)    3           7.1665 (  0.9954) /_   85.3

ELEMENT = "Line.MDV201_1163443ELB"
MDV201_1163443ELB_INT           (269)    3           7.1665 (  0.9954) /_   85.3
------------
1163443                         (270)    3           7.1665 (  0.9954) /_   85.3

ELEMENT = "Line.MDV201_DA_8_142_ABC6584"
99420                           (271)    1           7.1555 (  0.9939) /_  -34.6
99420                           (272)    2           7.1835 (  0.9978) /_ -154.6
99420                           (273)    3           7.1588 (  0.9943) /_   85.3
------------
6584                            ( 56)    1           7.1526 (  0.9935) /_  -34.6
6584                            (274)    2           7.1833 (  0.9977) /_ -154.6
6584                            (275)    3           7.1575 (  0.9942) /_   85.3

ELEMENT = "Line.MDV201_1144249FUSE"
14828                           (276)    3           7.2747 (    1.01) /_   85.5
------------
1144249                         (277)    3           7.2747 (    1.01) /_   85.5

ELEMENT = "Line.MDV201_HN_2_965_A63726"
14870                           (263)    1           7.2088 (   1.001) /_  -34.2
------------
63726                           (278)    1           7.2077 (   1.001) /_  -34.2

ELEMENT = "Line.MDV201_C_1_410_A8131"
8134                            (279)    1           7.1787 (  0.9971) /_  -34.2
------------
8131                            (280)    1           7.1784 (  0.9971) /_  -34.2

ELEMENT = "Line.MDV201_HN_2_463_C62234"
62232                           (281)    3           7.1685 (  0.9957) /_   85.3
------------
62234                           (282)    3           7.1679 (  0.9956) /_   85.3

ELEMENT = "Line.MDV201_HN_2_133_ABC8083"
841                             (283)    1           7.1624 (  0.9948) /_  -34.2
841                             (284)    2            7.143 (  0.9922) /_ -154.9
841                             (285)    3            7.233 (   1.005) /_   85.6
------------
8083                            (286)    1           7.1589 (  0.9944) /_  -34.2
8083                            (287)    2           7.1389 (  0.9916) /_ -155.0
8083                            (288)    3           7.2333 (   1.005) /_   85.6

ELEMENT = "Line.MDV201_HN_2_840_B52518"
39579                           (289)    2           7.0692 (  0.9819) /_ -155.3
------------
52518                           (290)    2           7.0667 (  0.9815) /_ -155.3

ELEMENT = "Line.MDV201_HN_2_808_ABC783"
782                             (291)    1           7.2907 (   1.013) /_  -33.6
782                             (292)    2           7.2792 (   1.011) /_ -153.9
782                             (293)    3           7.3023 (   1.014) /_   86.4
------------
783                             (294)    1           7.2841 (   1.012) /_  -33.6
783                             (295)    2            7.273 (    1.01) /_ -154.0
783                             (296)    3           7.2989 (   1.014) /_   86.4

ELEMENT = "Line.MDV201_HN_2_608_A8133"
8132                            (297)    1           7.1774 (  0.9969) /_  -34.2
------------
8133                            (298)    1           7.1773 (  0.9969) /_  -34.2


ELEMENT = "Line.MDV201_C_1P032_1160490"
MDV201_C_1P032_1160490_INT      (299)    1           7.1394 (  0.9917) /_  -34.2
------------
1160490                         (300)    1           7.1394 (  0.9917) /_  -34.2

ELEMENT = "Line.MDV201_HN_2_077_C28274"
100477                          (301)    3           7.2642 (   1.009) /_   85.5
------------
28274                           (302)    3            7.264 (   1.009) /_   85.5

ELEMENT = "Line.MDV201_HN_2_711_A63676"
63677                           (303)    1           7.2065 (   1.001) /_  -34.1
------------
63676                           (304)    1           7.2063 (   1.001) /_  -34.1

ELEMENT = "Line.MDV201_HN_2_923_C28266"
102184                          (305)    3           7.1868 (  0.9982) /_   85.4
------------
28266                           (306)    3           7.1867 (  0.9982) /_   85.4

ELEMENT = "Line.MDV201_HN_21041_C39773"
39772                           (307)    3           7.1821 (  0.9976) /_   85.4
------------
39773                           (308)    3            7.182 (  0.9976) /_   85.4

ELEMENT = "Line.MDV201_HN_2_644_A28238"
28241                           (309)    1           7.2011 (       1) /_  -34.1
------------
28238                           (310)    1           7.2003 (       1) /_  -34.1

ELEMENT = "Line.MDV201_1144260FUSE"
848                             (311)    2           7.1318 (  0.9906) /_ -155.0
------------
1144260                         (312)    2           7.1317 (  0.9906) /_ -155.0

ELEMENT = "Line.MDV201_HN_2_539_C8098"
8095                            (313)    3           7.2285 (   1.004) /_   85.5
------------
8098                            (314)    3           7.2283 (   1.004) /_   85.5

ELEMENT = "Line.MDV201_HN_2_800_B850"
849                             (315)    2           7.1283 (  0.9901) /_ -155.0
------------
850                             (316)    2           7.1276 (    0.99) /_ -155.0

ELEMENT = "Line.MDV201_HN_2_092_ABC63711"
63714                           (317)    1           7.2077 (   1.001) /_  -34.2
63714                           (318)    2           7.1999 (       1) /_ -154.5
63714                           (319)    3           7.2168 (   1.002) /_   85.6
------------
63711                           (320)    1           7.2051 (   1.001) /_  -34.2
63711                           (321)    2            7.197 (  0.9996) /_ -154.5
63711                           (322)    3           7.2088 (   1.001) /_   85.5

ELEMENT = "Line.MDV201_HN_2P014_B1160485"
1160484                         (323)    2             6.99 (  0.9709) /_ -155.3
------------
1160485                         (324)    2           6.9897 (  0.9708) /_ -155.3

ELEMENT = "Line.MDV201_C_1_412_A8128"
8127                            (325)    1            7.178 (   0.997) /_  -34.2
------------
8128                            (326)    1           7.1778 (   0.997) /_  -34.2

ELEMENT = "Line.MDV201_HN_2_533_A8117"
8119                            (327)    1            7.155 (  0.9938) /_  -34.2
------------
8117                            (328)    1           7.1548 (  0.9938) /_  -34.2

ELEMENT = "Line.MDV201_HN_2_970_A63710"
63709                           (329)    1           7.2049 (   1.001) /_  -34.2
------------
63710                           (330)    1           7.2047 (   1.001) /_  -34.2

ELEMENT = "Line.MDV201_C_1_400_A21653"
21654                           (331)    1           7.1836 (  0.9978) /_  -34.2
------------
21653                           (332)    1           7.1826 (  0.9976) /_  -34.2

ELEMENT = "Line.MDV201_HN_2_124_C63703"
63708                           (333)    3           7.2493 (   1.007) /_   85.6
------------
63703                           (334)    3           7.2485 (   1.007) /_   85.6

ELEMENT = "Line.MDV201_106254FUSE"
58411                           (335)    1           7.1498 (  0.9931) /_  -34.7
------------
106254                          (336)    1           7.1498 (  0.9931) /_  -34.7

ELEMENT = "Line.MDV201_HN_1_380_C1012407"
1012405                         (337)    3           7.2058 (   1.001) /_   85.4
------------
1012407                         (338)    3           7.2057 (   1.001) /_   85.4

ELEMENT = "Line.MDV201_HN_2_381_ABC1010731"
810                             (339)    1           7.1975 (  0.9997) /_  -34.1
810                             (340)    2           7.1862 (  0.9981) /_ -154.8
810                             (341)    3           7.2545 (   1.008) /_   85.6
------------
1010731                         (342)    1           7.1965 (  0.9996) /_  -34.2
1010731                         (343)    2           7.1864 (  0.9982) /_ -154.8
1010731                         (344)    3            7.253 (   1.007) /_   85.6

ELEMENT = "Line.MDV201_DA_8_732_C74453"
39745                           (345)    3           7.1037 (  0.9867) /_   85.1
------------
74453                           (346)    3           7.1028 (  0.9866) /_   85.1

ELEMENT = "Line.MDV201_DA_8_144_ABC6582"
6580                            (347)    1            7.157 (  0.9941) /_  -34.6
6580                            (348)    2           7.1837 (  0.9978) /_ -154.6
6580                            (349)    3           7.1594 (  0.9944) /_   85.3
------------
6582                            (350)    1           7.1557 (  0.9939) /_  -34.6
6582                            (351)    2           7.1836 (  0.9978) /_ -154.6
6582                            (352)    3           7.1589 (  0.9943) /_   85.3

ELEMENT = "Line.MDV201_HN_1_147_C1012412"
1012405                         (337)    3           7.2058 (   1.001) /_   85.4
------------
1012412                         (353)    3           7.2056 (   1.001) /_   85.4

ELEMENT = "Line.MDV201_HN_2_846_B69620"
69622                           (354)    2           7.0576 (  0.9803) /_ -155.3
------------
69620                           (355)    2           7.0561 (  0.9801) /_ -155.3

ELEMENT = "Line.MDV201_HN_2_814_ABC14891"
63654                           (356)    1            7.224 (   1.003) /_  -34.0
63654                           (357)    2           7.2133 (   1.002) /_ -154.5
63654                           (358)    3           7.2546 (   1.008) /_   85.8
------------
14891                           (359)    1           7.2202 (   1.003) /_  -34.1
14891                           (360)    2           7.2106 (   1.002) /_ -154.5
14891                           (361)    3           7.2465 (   1.007) /_   85.7

ELEMENT = "Line.MDV201_DA_8_868_B1103250"
56756                           (362)    2           6.9966 (  0.9718) /_ -155.3
------------
1103250                         (363)    2           6.9966 (  0.9718) /_ -155.3

ELEMENT = "Line.MDV201_1017350FUSE"
6581                            (364)    2           6.9971 (  0.9719) /_ -155.3
------------
1017350                         (209)    2           6.9971 (  0.9719) /_ -155.3

ELEMENT = "Line.MDV201_HN_2_719_C14872"
14876                           (365)    3           7.2493 (   1.007) /_   85.6
------------
14872                           (366)    3           7.2492 (   1.007) /_   85.6

ELEMENT = "Line.MDV201_HN_2_930_B62301"
1144245                         (367)    2           7.0914 (   0.985) /_ -155.2
------------
62301                           (368)    2           7.0914 (   0.985) /_ -155.2

ELEMENT = "Line.MDV201_HN_2_407_B809"
806                             (369)    2           7.1911 (  0.9988) /_ -154.6
------------
809                             (370)    2           7.1897 (  0.9986) /_ -154.6

ELEMENT = "Line.MDV201_HN_2_650_A28242"
28248                           (371)    1           7.2012 (       1) /_  -34.1
------------
28242                           (372)    1           7.2009 (       1) /_  -34.1

ELEMENT = "Line.MDV201_DA_8_492_ABC74428"
74420                           (373)    1           7.1461 (  0.9926) /_  -34.6
74420                           (374)    2           7.1724 (  0.9962) /_ -154.6
74420                           (375)    3           7.1479 (  0.9928) /_   85.2
------------
74428                           (376)    1           7.1463 (  0.9926) /_  -34.6
74428                           (377)    2           7.1713 (  0.9961) /_ -154.6
74428                           (378)    3           7.1471 (  0.9927) /_   85.2

ELEMENT = "Line.MDV201_HN_2_151_C14833"
14831                           (379)    3           7.2728 (    1.01) /_   85.5
------------
14833                           (380)    3           7.2698 (    1.01) /_   85.5

ELEMENT = "Line.MDV201_HN_2_641_AC14893"
28251                           (381)    1           7.2037 (   1.001) /_  -34.1
28251                           (382)    3           7.2563 (   1.008) /_   85.7
------------
14893                           (383)    1           7.2022 (       1) /_  -34.1
14893                           (384)    3           7.2562 (   1.008) /_   85.7

ELEMENT = "Line.MDV201_DA_8_203_C46407"
74456                           (385)    3           7.1236 (  0.9894) /_   85.1
------------
46407                           (386)    3           7.1199 (  0.9889) /_   85.1

ELEMENT = "Line.MDV201_HN_1_172_A94737"
94736                           (387)    1           7.1126 (  0.9879) /_  -34.2
------------
94737                           (388)    1           7.1125 (  0.9879) /_  -34.2

ELEMENT = "Line.MDV201_HN_1_165_C89780"
89779                           (389)    3           7.2044 (   1.001) /_   85.4
------------
89780                           (390)    3           7.2042 (   1.001) /_   85.4

ELEMENT = "Line.MDV201_HN_2_127_C63708"
100480                          (391)    3           7.2498 (   1.007) /_   85.6
------------
63708                           (333)    3           7.2493 (   1.007) /_   85.6

ELEMENT = "Line.MDV201_PB_0928_A1000987"
1000988                         (392)    1           7.1568 (  0.9941) /_  -34.2
------------
1000987                         (393)    1           7.1568 (  0.9941) /_  -34.2

ELEMENT = "Line.MDV201_HN_2_128_ABC28288"
28287                           (394)    1           7.1191 (  0.9888) /_  -34.2
28287                           (395)    2           7.0704 (  0.9821) /_ -155.2
28287                           (396)    3            7.202 (       1) /_   85.4
------------
28288                           (397)    1           7.1195 (  0.9889) /_  -34.2
28288                           (398)    2             7.07 (   0.982) /_ -155.2
28288                           (399)    3           7.2009 (       1) /_   85.4

ELEMENT = "Line.SW-HN_2_381_SW"
1010731                         (342)    1           7.1965 (  0.9996) /_  -34.2
1010731                         (343)    2           7.1864 (  0.9982) /_ -154.8
1010731                         (344)    3            7.253 (   1.007) /_   85.6
------------
MDV201_1010732USD_INT           (400)    1           7.1964 (  0.9996) /_  -34.2
MDV201_1010732USD_INT           (401)    2           7.1864 (  0.9982) /_ -154.8
MDV201_1010732USD_INT           (402)    3            7.253 (   1.007) /_   85.6

ELEMENT = "Line.MDV201_1010732USD"
MDV201_1010732USD_INT           (400)    1           7.1964 (  0.9996) /_  -34.2
MDV201_1010732USD_INT           (401)    2           7.1864 (  0.9982) /_ -154.8
MDV201_1010732USD_INT           (402)    3            7.253 (   1.007) /_   85.6
------------
1010732                         (403)    1           7.1964 (  0.9996) /_  -34.2
1010732                         (404)    2           7.1864 (  0.9982) /_ -154.8
1010732                         (405)    3            7.253 (   1.007) /_   85.6

ELEMENT = "Line.MDV201_1144262FUSE"
28226                           (406)    3           7.2566 (   1.008) /_   85.6
------------
1144262                         (407)    3           7.2566 (   1.008) /_   85.6

ELEMENT = "Line.MDV201_C_1_138_ABC1127424"
69477                           (107)    1           7.1273 (    0.99) /_  -34.2
69477                           (108)    2           7.0992 (  0.9861) /_ -155.2
69477                           (109)    3           7.2311 (   1.004) /_   85.5
------------
1127424                         (408)    1           7.1273 (    0.99) /_  -34.2
1127424                         (409)    2           7.0992 (  0.9861) /_ -155.2
1127424                         (410)    3           7.2311 (   1.004) /_   85.5

ELEMENT = "Line.MDV201_DA_8_234_ABC56762"
56751                           (411)    1            7.149 (   0.993) /_  -34.6
56751                           (412)    2           7.1821 (  0.9976) /_ -154.6
56751                           (413)    3           7.1553 (  0.9939) /_   85.3
------------
56762                           (414)    1           7.1472 (  0.9927) /_  -34.6
56762                           (415)    2           7.1816 (  0.9975) /_ -154.6
56762                           (416)    3           7.1542 (  0.9937) /_   85.3

ELEMENT = "Line.MDV201_1144253FUSE"
6572                            (417)    2           7.0239 (  0.9756) /_ -155.3
------------
1144253                         (418)    2           7.0239 (  0.9756) /_ -155.3

ELEMENT = "Line.MDV201_HN_2_120_A28281"
28282                           (419)    1           7.1186 (  0.9887) /_  -34.2
------------
28281                           (420)    1            7.118 (  0.9887) /_  -34.2

ELEMENT = "Line.MDV201_HN_1_274_A94747"
94743                           ( 10)    1           7.1121 (  0.9879) /_  -34.2
------------
94747                           (421)    1           7.1121 (  0.9879) /_  -34.2

ELEMENT = "Line.MDV201_HN_2_852_B39588"
52519                           (252)    2           7.0509 (  0.9793) /_ -155.3
------------
39588                           (422)    2           7.0504 (  0.9793) /_ -155.3

ELEMENT = "Line.MDV201_HN_2_820_B39623"
39621                           (423)    2           7.1202 (   0.989) /_ -155.0
------------
39623                           (168)    2           7.1196 (  0.9889) /_ -155.0

ELEMENT = "Line.MDV201_C_1_506_A8143"
1010738                         (424)    1            7.145 (  0.9924) /_  -34.2
------------
8143                            (425)    1           7.1441 (  0.9923) /_  -34.2

ELEMENT = "Line.MDV201_DA_8_216_B1017349"
1017348                         (210)    2           6.9963 (  0.9718) /_ -155.3
------------
1017349                         (426)    2           6.9961 (  0.9717) /_ -155.3

ELEMENT = "Line.MDV201_HN_2_291_ABC63681"
63680                           (427)    1           7.2099 (   1.001) /_  -34.1
63680                           (428)    2           7.1976 (  0.9997) /_ -154.7
63680                           (429)    3           7.2587 (   1.008) /_   85.7
------------
63681                           (430)    1           7.2088 (   1.001) /_  -34.1
63681                           (431)    2            7.195 (  0.9994) /_ -154.7
63681                           (432)    3           7.2581 (   1.008) /_   85.7

ELEMENT = "Line.MDV201_106259FUSE"
58431                           (433)    3           7.1363 (  0.9912) /_   85.1
------------
106259                          (434)    3           7.1363 (  0.9912) /_   85.1

ELEMENT = "Line.MDV201_HN_2_382_ABC823"
1010732                         (403)    1           7.1964 (  0.9996) /_  -34.2
1010732                         (404)    2           7.1864 (  0.9982) /_ -154.8
1010732                         (405)    3            7.253 (   1.007) /_   85.6
------------
823                             (435)    1           7.1959 (  0.9995) /_  -34.2
823                             (436)    2           7.1865 (  0.9982) /_ -154.8
823                             (437)    3           7.2522 (   1.007) /_   85.6

ELEMENT = "Line.MDV201_HN_2_821_B39618"
39621                           (423)    2           7.1202 (   0.989) /_ -155.0
------------
39618                           (438)    2           7.1199 (  0.9889) /_ -155.0

ELEMENT = "Line.MDV201_HN_2_927_C94731"
1140226                         (439)    3           7.2508 (   1.007) /_   85.6
------------
94731                           (440)    3           7.2507 (   1.007) /_   85.6

ELEMENT = "Line.MDV201_HN_2_235_ABC854"
28186                           (441)    1           7.1893 (  0.9986) /_  -34.2
28186                           (442)    2           7.1879 (  0.9984) /_ -154.8
28186                           (443)    3           7.2497 (   1.007) /_   85.6
------------
854                             (444)    1           7.1893 (  0.9986) /_  -34.2
854                             (445)    2           7.1879 (  0.9984) /_ -154.8
854                             (446)    3           7.2497 (   1.007) /_   85.6

ELEMENT = "Line.MDV201_HN_2_306_ABC28286"
28284                           (447)    1           7.1191 (  0.9888) /_  -34.2
28284                           (448)    2           7.0707 (  0.9821) /_ -155.2
28284                           (449)    3           7.2042 (   1.001) /_   85.4
------------
28286                           (450)    1           7.1191 (  0.9888) /_  -34.2
28286                           (451)    2           7.0706 (  0.9821) /_ -155.2
28286                           (452)    3           7.2035 (   1.001) /_   85.4

ELEMENT = "Line.MDV201_C_1_411_A8127"
8131                            (280)    1           7.1784 (  0.9971) /_  -34.2
------------
8127                            (325)    1            7.178 (   0.997) /_  -34.2

ELEMENT = "Line.MDV201_HN_2_520_A8092"
8090                            (453)    1           7.1608 (  0.9946) /_  -34.2
------------
8092                            (454)    1           7.1596 (  0.9944) /_  -34.2

ELEMENT = "Line.MDV201_HN_2_420_A814"
808                             (455)    1            7.252 (   1.007) /_  -33.8
------------
814                             (456)    1           7.2513 (   1.007) /_  -33.8

ELEMENT = "Line.MDV201_HN_2_153_B14829"
14828                           (457)    2           7.1222 (  0.9893) /_ -155.2
------------
14829                           (458)    2           7.1132 (   0.988) /_ -155.2

ELEMENT = "Line.MDV201_HN_2_870_C831"
830                             (459)    3           7.2288 (   1.004) /_   85.5
------------
831                             (460)    3           7.2273 (   1.004) /_   85.5

ELEMENT = "Line.MDV201_C_1_354_B1008227"
1008229                         (461)    2           7.0993 (  0.9861) /_ -155.2
------------
1008227                         (462)    2           7.0992 (  0.9861) /_ -155.2

ELEMENT = "Line.MDV201_HN_21036_ABC28186"
28189                           (463)    1           7.1894 (  0.9986) /_  -34.2
28189                           (464)    2            7.188 (  0.9984) /_ -154.8
28189                           (465)    3           7.2497 (   1.007) /_   85.6
------------
28186                           (441)    1           7.1893 (  0.9986) /_  -34.2
28186                           (442)    2           7.1879 (  0.9984) /_ -154.8
28186                           (443)    3           7.2497 (   1.007) /_   85.6

ELEMENT = "Line.MDV201_DA_8_139_B56756"
6581                            (364)    2           6.9971 (  0.9719) /_ -155.3
------------
56756                           (362)    2           6.9966 (  0.9718) /_ -155.3

ELEMENT = "Line.MDV201_HN_2_422_A790"
785                             (466)    1           7.2553 (   1.008) /_  -33.8
------------
790                             (467)    1            7.254 (   1.008) /_  -33.8

ELEMENT = "Line.HN_2P011_SW"
1160477                         (468)    2            6.991 (   0.971) /_ -155.3
------------
MDV201_15005ELB_INT             (469)    2           6.9909 (   0.971) /_ -155.3

ELEMENT = "Line.MDV201_15005ELB"
MDV201_15005ELB_INT             (469)    2           6.9909 (   0.971) /_ -155.3
------------
15005                           ( 45)    2           6.9909 (   0.971) /_ -155.3

ELEMENT = "Line.MDV201_1149717FUSE"
56778                           (173)    1           7.1456 (  0.9925) /_  -34.6
56778                           (174)    2           7.1765 (  0.9968) /_ -154.6
56778                           (175)    3           7.1506 (  0.9932) /_   85.3
------------
1149717                         (470)    1           7.1456 (  0.9925) /_  -34.6
1149717                         (471)    2           7.1765 (  0.9968) /_ -154.6
1149717                         (472)    3           7.1506 (  0.9932) /_   85.3

ELEMENT = "Line.MDV201_DA_8_218_B8204"
8205                            (473)    2           6.9955 (  0.9717) /_ -155.3
------------
8204                            (474)    2           6.9955 (  0.9717) /_ -155.3

ELEMENT = "Line.MDV201_HN_2_387_B804"
802                             (475)    2            7.195 (  0.9994) /_ -154.6
------------
804                             (476)    2           7.1947 (  0.9993) /_ -154.6

ELEMENT = "Line.MDV201_HN_2_859_B94734"
94733                           (477)    2            7.053 (  0.9796) /_ -155.3
------------
94734                           (478)    2           7.0529 (  0.9796) /_ -155.3

ELEMENT = "Line.MDV201_HN_2_830_A14875"
14873                           (135)    1           7.2023 (       1) /_  -34.1
------------
14875                           (479)    1           7.2023 (       1) /_  -34.1

ELEMENT = "Line.MDV201_1012406FUSE"
58441                           (156)    3           7.2073 (   1.001) /_   85.4
------------
1012406                         (480)    3           7.2073 (   1.001) /_   85.4

ELEMENT = "Line.MDV201_HN_2_186_ABC15011"
39764                           (481)    1           7.1711 (  0.9961) /_  -34.5
39764                           (482)    2           7.1842 (  0.9979) /_ -154.5
39764                           (483)    3           7.1652 (  0.9952) /_   85.3
------------
15011                           (484)    1           7.1659 (  0.9953) /_  -34.5
15011                           (485)    2            7.184 (  0.9978) /_ -154.6
15011                           (486)    3           7.1631 (  0.9949) /_   85.3

ELEMENT = "Line.MDV201_HN_2_522_C855"
8087                            (487)    3             7.23 (   1.004) /_   85.5
------------
855                             (488)    3           7.2286 (   1.004) /_   85.5

ELEMENT = "Line.MDV201_108027FUSE"
69623                           (489)    3            7.213 (   1.002) /_   85.4
------------
108027                          (490)    3            7.213 (   1.002) /_   85.4

ELEMENT = "Line.MDV201_1010727FUSE"
63638                           (491)    1           7.2587 (   1.008) /_  -33.8
------------
1010727                         (492)    1           7.2587 (   1.008) /_  -33.8

ELEMENT = "Line.MDV201_HN_2_831_ABC39762"
39763                           (493)    1           7.1722 (  0.9962) /_  -34.5
39763                           (494)    2           7.1842 (  0.9979) /_ -154.5
39763                           (495)    3           7.1656 (  0.9953) /_   85.3
------------
39762                           (496)    1           7.1722 (  0.9962) /_  -34.5
39762                           (497)    2           7.1842 (  0.9979) /_ -154.5
39762                           (498)    3           7.1656 (  0.9953) /_   85.3

ELEMENT = "Line.MDV201_1145433FUSE"
89785                           (499)    3           7.2041 (   1.001) /_   85.4
------------
1145433                         (500)    3           7.2041 (   1.001) /_   85.4

ELEMENT = "Line.MDV201_HN_2_540_C8108"
8098                            (314)    3           7.2283 (   1.004) /_   85.5
------------
8108                            (501)    3           7.2282 (   1.004) /_   85.5

ELEMENT = "Line.MDV201_HN_2_653_A14878"
14881                           (502)    1           7.1989 (  0.9999) /_  -34.1
------------
14878                           (503)    1           7.1988 (  0.9999) /_  -34.1

ELEMENT = "Line.MDV201_C_1_083_B69488"
69485                           (504)    2           7.0989 (   0.986) /_ -155.2
------------
69488                           (505)    2           7.0987 (   0.986) /_ -155.2

ELEMENT = "Line.MDV201_HN_2P016_B1160487"
1160482                         (506)    2           6.9893 (  0.9708) /_ -155.3
------------
1160487                         (507)    2           6.9891 (  0.9708) /_ -155.3

ELEMENT = "Line.MDV201_HN_2_223_B8168"
8169                            (508)    2           7.1932 (  0.9991) /_ -154.5
------------
8168                            (509)    2            7.193 (  0.9991) /_ -154.5

ELEMENT = "Line.MDV201_1163441ELB-1_SW"
1163438                         (510)    3           7.1665 (  0.9954) /_   85.3
------------
MDV201_1163441ELB_INT           (511)    3           7.1665 (  0.9954) /_   85.3

ELEMENT = "Line.MDV201_1163441ELB"
MDV201_1163441ELB_INT           (511)    3           7.1665 (  0.9954) /_   85.3
------------
1163441                         (512)    3           7.1665 (  0.9954) /_   85.3

ELEMENT = "Line.MDV201_HN_2_731_B14852"
14851                           (513)    2           7.2044 (   1.001) /_ -154.5
------------
14852                           (514)    2           7.2043 (   1.001) /_ -154.5

ELEMENT = "Line.C_1P035_SW"
1160496                         (515)    1           7.1306 (  0.9904) /_  -34.2
------------
MDV201_8082ELB_INT              (516)    1           7.1306 (  0.9904) /_  -34.2

ELEMENT = "Line.MDV201_8082ELB"
MDV201_8082ELB_INT              (516)    1           7.1306 (  0.9904) /_  -34.2
------------
8082                            (517)    1           7.1306 (  0.9904) /_  -34.2

ELEMENT = "Line.MDV201_HN_2_064_C14871"
14848                           (518)    3           7.2501 (   1.007) /_   85.6
------------
14871                           (519)    3           7.2498 (   1.007) /_   85.6

ELEMENT = "Line.MDV201_HN_2_878_B1144266"
1144267                         (520)    2           7.1862 (  0.9981) /_ -154.8
------------
1144266                         (521)    2           7.1859 (  0.9981) /_ -154.8

ELEMENT = "Line.MDV201_HN_2_149_C28298"
28297                           (522)    3           7.2671 (   1.009) /_   85.5
------------
28298                           (523)    3           7.2657 (   1.009) /_   85.5

ELEMENT = "Line.MDV201_HN_1_177_C69626"
108027                          (490)    3            7.213 (   1.002) /_   85.4
------------
69626                           (524)    3            7.213 (   1.002) /_   85.4

ELEMENT = "Line.MDV201_DA_8_809_C46402"
46400                           (525)    3           7.1311 (  0.9905) /_   85.1
------------
46402                           (526)    3           7.1311 (  0.9905) /_   85.1

ELEMENT = "Line.MDV201_1144263FUSE"
63684                           (527)    1           7.2076 (   1.001) /_  -34.1
------------
1144263                         (528)    1           7.2076 (   1.001) /_  -34.1

ELEMENT = "Line.MDV201_HN_2_868_C833"
1144261                         (529)    3           7.2325 (   1.005) /_   85.6
------------
833                             (530)    3           7.2302 (   1.004) /_   85.5

ELEMENT = "Line.MDV201_HN_2_836_B39616"
39615                           (531)    2           7.1254 (  0.9897) /_ -155.0
------------
39616                           (532)    2           7.1253 (  0.9897) /_ -155.0

ELEMENT = "Line.MDV201_103731FUSE"
39611                           (533)    1           7.1233 (  0.9894) /_  -34.2
------------
103731                          (534)    1           7.1233 (  0.9894) /_  -34.2

...